LAMMPS (7 Aug 2019)
units		real
atom_style	atomic

# read starting configuration
read_data	Kr_1K.dat
  orthogonal box = (-1.4719 -1.4719 -1.4719) to (26.4719 26.4719 26.4719)
  reading atoms ...
  500 atoms
  reading velocities ...
  500 velocities

# potential
timestep        1.0
pair_style	lj/cut 7.0
pair_coeff	1 1 0.34319013128 3.591
neighbor	1.0 bin
neigh_modify	every 1 check yes

# ouputs
thermo          10
thermo_style    custom step temp pe press vol density lx
dump            2 all custom 5000 md.lammpstrj id type x y z

# initial run at 1 K
fix             1 all nvt temp 1 1 100.0
run             20000
  update every 1 steps, delay 10 steps, check yes
Step Temp PotEng Press Volume Density Lx
0   0.94924373   -1315.7856    26.487323    21820.062    3.1885758    27.943791
Averages over the last 1001 of 2001 rows, steps 10000 to 20000:
Temp PotEng Press Volume Density Lx
0.997181 -1314.62 45.1333 21820.1 3.18858 27.9438
Loop time of 4.10218 on 1 procs for 20000 steps with 500 atoms

unfix           1

# sudden increase in temperature
fix             2 all nvt temp 120 120 2500.0
run             40000
Step Temp PotEng Press Volume Density Lx
20000   0.95606665    -1314.736    43.174962    21820.062    3.1885758    27.943791
Averages over the last 2001 of 4001 rows, steps 40000 to 60000:
Temp PotEng Press Volume Density Lx
54.632 -1207.13 1694.98 21820.1 3.18858 27.9438
Loop time of 8.13825 on 1 procs for 40000 steps with 500 atoms

unfix           2
